OPT_V10/Two_days_MCY3_MIQCPM1/powerflow_results_t24.txt
Pandapower Network Debug Info
==================================================

BUS:
       vm_pu  va_degree      p_mw    q_mvar
0   0.992609   0.131256  0.001159  0.000835
1   0.987853   0.222568  0.001442  0.002120
2   0.983419   0.310343  0.002200  0.003360
3   0.988758   0.219321  0.002450  0.004170
4   0.999877   0.001171  0.010732  0.011655
5   0.999863   0.001271  0.009983  0.010603
6   0.999852   0.001334  0.013064  0.012424
7   0.999924   0.000801  0.000000  0.000000
8   0.999924   0.000807  0.000000  0.000000
9   1.000000   0.000000 -0.041191 -0.050277
10  1.000000   0.000007  0.000000  0.000000
--------------------------------------------------

LINE:
   p_from_mw  q_from_mvar   p_to_mw  q_to_mvar         pl_mw       ql_mvar  i_from_ka   i_to_ka      i_ka  vm_from_pu  va_from_degree  vm_to_pu  va_to_degree  loading_percent
0   0.041181     0.046277 -0.041177  -0.046274  3.753519e-06  2.926681e-06   0.002384  0.002384  0.002384    1.000000        0.000007  0.999924      0.000801         1.036670
1   0.033781     0.034684 -0.033779  -0.034682  1.812932e-06  1.413573e-06   0.001864  0.001864  0.001864    0.999924        0.000801  0.999877      0.001171         0.810293
2   0.007386     0.010591 -0.007308  -0.010530  7.798896e-05  6.080928e-05   0.018638  0.018638  0.018638    0.999924        0.000807  0.992609      0.131256         8.103542
3  -0.023047    -0.023027  0.023047   0.023027  3.671553e-07  2.862770e-07   0.001254  0.001254  0.001254    0.999863        0.001271  0.999877      0.001171         0.545279
4  -0.013064    -0.012424  0.013064   0.012424  1.590044e-07  1.239784e-07   0.000694  0.000694  0.000694    0.999852        0.001334  0.999863      0.001271         0.301746
5  -0.003656    -0.005492  0.003683   0.005513  2.639454e-05  2.058026e-05   0.009641  0.009641  0.009641    0.987853        0.222568  0.992609      0.131256         4.191654
6  -0.002450    -0.004170  0.002466   0.004182  1.597327e-05  1.245462e-05   0.007060  0.007060  0.007060    0.988758        0.219321  0.992609      0.131256         3.069466
7  -0.002200    -0.003360  0.002215   0.003372  1.508792e-05  1.176430e-05   0.005895  0.005895  0.005895    0.983419        0.310343  0.987853      0.222568         2.562946
--------------------------------------------------

TRAFO:
    p_hv_mw  q_hv_mvar   p_lv_mw  q_lv_mvar    pl_mw  ql_mvar   i_hv_ka   i_lv_ka  vm_hv_pu  va_hv_degree  vm_lv_pu  va_lv_degree  loading_percent
0  0.007396   0.011590 -0.007386  -0.010591  0.00001    0.001  0.000529  0.018638  0.999924      0.000801  0.999924      0.000807         0.137503
1  0.041191   0.050277 -0.041181  -0.046277  0.00001    0.004  0.000536  0.002384  1.000000      0.000000  1.000000      0.000007         0.162490
--------------------------------------------------
